************************************************************
* Stages= 3
* R2= 0.998989 Max. difference= 0.0243346 K/W
************************************************************
.SUBCKT CAUER 1 4
C1 1 0 0.0057591487697614815
R1 1 2 0.20726105836856337
C2 2 0 0.091050680418488641
R2 2 3 0.64867972283709052
C3 3 0 3.0691258795410254
R3 3 4 0.24166239321548799
.ENDS CAUER